branches/ieee.odm.test/testdata/bpa/IEEE9.dat
loadflow
(POWERFLOW,CASEID=IEEE9,PROJECT=IEEE_9BUS_TEST_SYSTEM)
/MVA_BASE=100\
/SOL_ITER,DECOUPLED=2,NEWTON=15,OPITM=0\
/P_OUTPUT_LIST,ZONES=ALL\
/RPT_SORT=ZONE\
/NEW_BASE,FILE=IEEE90.BSE\
/PF_MAP,FILE = IEEE90.MAP\
/NETWORK_DATA\
A  NF        Gen1     16.5           01    
BS    Gen1    16.501                      999. 999.      1.01    
B     Bus1    230.01                  
B     BusA    230.01 125. 70.0     20.         
B     BusB    230.01  90. 40.0     10.    
B     BusC    230.01 100. 55.0     20.       
B     Bus2    230.01 35.0 10.0            
BE    Gen2    18.001                      163. 999       1.01
B     Bus3    230.01
BE    Gen3    13.801                       85. 999.      1.01
.L -----------------  transmission lines ----------------------------
L     Bus1    230. BusA    230.       .0100 .0850        .0440
L     Bus1    230. BusB    230.       .0170 .0920        .0395
L     BusA    230. Bus2    230.       .0320 .1610        .0765
L     BusB    230. Bus3    230.       .0390 .1700        .0895
L     Bus2    230. BusC    230.       .0085 .0720       .03725
L     BusC    230. Bus3    230.       .0119 .1008       .05225
.T ----- transformers ---------
T     Gen1    16.5 Bus1    230.             .0567             16.5 242. 
T     Gen2    18.0 Bus2    230.             .0625             18.0 242. 
T     Gen3    13.8 Bus3    230.             .0586             13.8 242. 
(END)
Bus.#define bsefile "ieee9.bse"
CASE IEEE9 
C IEEE 9节点系统                                       
LS  BusB    230.  Bus1    230.     1   50                      
LS -BusB    230. -Bus1    230.     -1  60.                     
M  Gen1    16.5 247.5 1.0     H      .04  .06  .04 .06
MF Gen1    16.5 2364.       100.    .0608.0969 .146.09698.96   .0336
M  Gen2    18.0 192.  .85     S      .089 .089 .033.078
MF Gen2    18.0 640.        100.    .1189.1969.8958.86456.00.54.0521
EA Gen2    18.0 0.06 20. 0.2     0.  0.  .314.104.293-.3983.98.063.35
SS Gen2    18.         0.5    10. 0.2 1.3 .02 1.3         .05 2.0
GH Gen2    18.0 180.  0.05 .04  1.0  5.0  .5   -0.1 0.1  .31
M  Gen3    13.8 128.  .85     S      .107 .107 .033.07
MF Gen3    13.8 301.        100.    .1813 .25 1.3131.2585.89 .6.0742
EA Gen1    16.5 0.06 20. .20     0.  0.  .314.104.293-4.0 4.0 .063.35   
.EA Gen2    18.0 0.06 20. .20     0.  0.  .314.104.293-4.0 4.0 .063.35   
.EA Bus3    13.8 0.06 20. .20     0.  0.  .314.104.293-4.0 4.0 .063.35   
LB BusA    230.            1.0  1.0                                          
LB BusB    230.            1.0  1.0
LB BusC    230.            1.0  1.0
FF          600.                                         1         1            
90
